*SPEF "IEEE 1481-1998"
*DESIGN "pwr_ctrl_top_N4_W16"
*DATE "Fri Apr 24 23:48:48 2026"
*VENDOR "Cadence Design Systems, Inc."
*PROGRAM "Innovus"
*VERSION "23.14-s088_1"
*DESIGN_FLOW "COUPLING C" "PIN_CAP NONE" "NAME_SCOPE LOCAL"
*DIVIDER /
*DELIMITER :
*BUS_DELIMITER []
*T_UNIT 1 NS
*C_UNIT 1 PF
*R_UNIT 1 OHM
*L_UNIT 1 HENRY

// MMMC spef file for corner 'rc_typical'

*NAME_MAP

*1 u_activity_counter/u_activity_counter\/eco_net_hold_7
*2 u_activity_counter/u_activity_counter\/eco_net_hold_6
*3 u_activity_counter/u_activity_counter\/eco_net_hold_5
*4 u_activity_counter/u_activity_counter\/eco_net_hold_4
*5 u_activity_counter/u_activity_counter\/eco_net_hold_3
*6 u_activity_counter/u_activity_counter\/eco_net_hold_2
*7 u_activity_counter/u_activity_counter\/eco_net_hold_1
*8 clk
*9 rst_n
*10 activity_pulse[3]
*11 activity_pulse[2]
*12 activity_pulse[1]
*13 activity_pulse[0]
*14 wake_evt[3]
*15 wake_evt[2]
*16 wake_evt[1]
*17 wake_evt[0]
*18 cfg_addr[31]
*19 cfg_addr[30]
*20 cfg_addr[29]
*21 cfg_addr[28]
*22 cfg_addr[27]
*23 cfg_addr[26]
*24 cfg_addr[25]
*25 cfg_addr[24]
*26 cfg_addr[23]
*27 cfg_addr[22]
*28 cfg_addr[21]
*29 cfg_addr[20]
*30 cfg_addr[19]
*31 cfg_addr[18]
*32 cfg_addr[17]
*33 cfg_addr[16]
*34 cfg_addr[15]
*35 cfg_addr[14]
*36 cfg_addr[13]
*37 cfg_addr[12]
*38 cfg_addr[11]
*39 cfg_addr[10]
*40 cfg_addr[9]
*41 cfg_addr[8]
*42 cfg_addr[7]
*43 cfg_addr[6]
*44 cfg_addr[5]
*45 cfg_addr[4]
*46 cfg_addr[3]
*47 cfg_addr[2]
*48 cfg_addr[1]
*49 cfg_addr[0]
*50 cfg_wdata[31]
*51 cfg_wdata[30]
*52 cfg_wdata[29]
*53 cfg_wdata[28]
*54 cfg_wdata[27]
*55 cfg_wdata[26]
*56 cfg_wdata[25]
*57 cfg_wdata[24]
*58 cfg_wdata[23]
*59 cfg_wdata[22]
*60 cfg_wdata[21]
*61 cfg_wdata[20]
*62 cfg_wdata[19]
*63 cfg_wdata[18]
*64 cfg_wdata[17]
*65 cfg_wdata[16]
*66 cfg_wdata[15]
*67 cfg_wdata[14]
*68 cfg_wdata[13]
*69 cfg_wdata[12]
*70 cfg_wdata[11]
*71 cfg_wdata[10]
*72 cfg_wdata[9]
*73 cfg_wdata[8]
*74 cfg_wdata[7]
*75 cfg_wdata[6]
*76 cfg_wdata[5]
*77 cfg_wdata[4]
*78 cfg_wdata[3]
*79 cfg_wdata[2]
*80 cfg_wdata[1]
*81 cfg_wdata[0]
*82 cfg_we
*83 cfg_re
*84 cfg_rdata[16]
*85 cfg_rdata[15]
*86 cfg_rdata[14]
*87 cfg_rdata[13]
*88 cfg_rdata[12]
*89 cfg_rdata[11]
*90 cfg_rdata[10]
*91 cfg_rdata[9]
*92 cfg_rdata[8]
*93 cfg_rdata[7]
*94 cfg_rdata[6]
*95 cfg_rdata[5]
*96 cfg_rdata[4]
*97 cfg_rdata[3]
*98 cfg_rdata[2]
*99 cfg_rdata[1]
*100 cfg_rdata[0]
*101 scan_en
*102 gclk_out[3]
*103 gclk_out[2]
*104 gclk_out[1]
*105 gclk_out[0]
*106 state\[3\]\[1\]
*107 state\[3\]\[0\]
*108 state\[2\]\[1\]
*109 state\[2\]\[0\]
*110 state\[1\]\[1\]
*111 state\[1\]\[0\]
*112 state\[0\]\[1\]
*113 state\[0\]\[0\]
*114 FE_PHN29_periph_en_1
*115 FE_PHN16_periph_en_0
*116 FE_PHN15_periph_en_3
*117 FE_PHN14_periph_en_2
*118 FE_PHN13_periph_en_1
*119 CTS_8
*120 CTS_7
*121 CTS_2
*122 CTS_1
*123 CTS_6
*124 CTS_5
*125 CTS_4
*126 CTS_3
*127 idle_base_th\[3\]\[15\]
*128 idle_base_th\[3\]\[14\]
*129 idle_base_th\[3\]\[13\]
*130 idle_base_th\[3\]\[12\]
*131 idle_base_th\[3\]\[11\]
*132 idle_base_th\[3\]\[10\]
*133 idle_base_th\[3\]\[9\]
*134 idle_base_th\[3\]\[8\]
*135 idle_base_th\[3\]\[7\]
*136 idle_base_th\[3\]\[6\]
*137 idle_base_th\[3\]\[5\]
*138 idle_base_th\[3\]\[4\]
*139 idle_base_th\[3\]\[3\]
*140 idle_base_th\[3\]\[2\]
*141 idle_base_th\[3\]\[1\]
*142 idle_base_th\[3\]\[0\]
*143 idle_base_th\[2\]\[15\]
*144 idle_base_th\[2\]\[14\]
*145 idle_base_th\[2\]\[13\]
*146 idle_base_th\[2\]\[12\]
*147 idle_base_th\[2\]\[11\]
*148 idle_base_th\[2\]\[10\]
*149 idle_base_th\[2\]\[9\]
*150 idle_base_th\[2\]\[8\]
*151 idle_base_th\[2\]\[7\]
*152 idle_base_th\[2\]\[6\]
*153 idle_base_th\[2\]\[5\]
*154 idle_base_th\[2\]\[4\]
*155 idle_base_th\[2\]\[3\]
*156 idle_base_th\[2\]\[2\]
*157 idle_base_th\[2\]\[1\]
*158 idle_base_th\[2\]\[0\]
*159 idle_base_th\[1\]\[15\]
*160 idle_base_th\[1\]\[14\]
*161 idle_base_th\[1\]\[13\]
*162 idle_base_th\[1\]\[12\]
*163 idle_base_th\[1\]\[11\]
*164 idle_base_th\[1\]\[10\]
*165 idle_base_th\[1\]\[9\]
*166 idle_base_th\[1\]\[8\]
*167 idle_base_th\[1\]\[7\]
*168 idle_base_th\[1\]\[6\]
*169 idle_base_th\[1\]\[5\]
*170 idle_base_th\[1\]\[4\]
*171 idle_base_th\[1\]\[3\]
*172 idle_base_th\[1\]\[2\]
*173 idle_base_th\[1\]\[1\]
*174 idle_base_th\[1\]\[0\]
*175 idle_base_th\[0\]\[15\]
*176 idle_base_th\[0\]\[14\]
*177 idle_base_th\[0\]\[13\]
*178 idle_base_th\[0\]\[12\]
*179 idle_base_th\[0\]\[11\]
*180 idle_base_th\[0\]\[10\]
*181 idle_base_th\[0\]\[9\]
*182 idle_base_th\[0\]\[8\]
*183 idle_base_th\[0\]\[7\]
*184 idle_base_th\[0\]\[6\]
*185 idle_base_th\[0\]\[5\]
*186 idle_base_th\[0\]\[4\]
*187 idle_base_th\[0\]\[3\]
*188 idle_base_th\[0\]\[2\]
*189 idle_base_th\[0\]\[1\]
*190 idle_base_th\[0\]\[0\]
*191 idle_count\[3\]\[15\]
*192 idle_count\[3\]\[14\]
*193 idle_count\[3\]\[13\]
*194 idle_count\[3\]\[12\]
*195 idle_count\[3\]\[11\]
*196 idle_count\[3\]\[10\]
*197 idle_count\[3\]\[9\]
*198 idle_count\[3\]\[8\]
*199 idle_count\[3\]\[7\]
*200 idle_count\[3\]\[6\]
*201 idle_count\[3\]\[5\]
*202 idle_count\[3\]\[4\]
*203 idle_count\[3\]\[3\]
*204 idle_count\[3\]\[2\]
*205 idle_count\[3\]\[1\]
*206 idle_count\[3\]\[0\]
*207 idle_count\[2\]\[15\]
*208 idle_count\[2\]\[14\]
*209 idle_count\[2\]\[13\]
*210 idle_count\[2\]\[12\]
*211 idle_count\[2\]\[11\]
*212 idle_count\[2\]\[10\]
*213 idle_count\[2\]\[9\]
*214 idle_count\[2\]\[8\]
*215 idle_count\[2\]\[7\]
*216 idle_count\[2\]\[6\]
*217 idle_count\[2\]\[5\]
*218 idle_count\[2\]\[4\]
*219 idle_count\[2\]\[3\]
*220 idle_count\[2\]\[2\]
*221 idle_count\[2\]\[1\]
*222 idle_count\[2\]\[0\]
*223 idle_count\[1\]\[15\]
*224 idle_count\[1\]\[14\]
*225 idle_count\[1\]\[13\]
*226 idle_count\[1\]\[12\]
*227 idle_count\[1\]\[11\]
*228 idle_count\[1\]\[10\]
*229 idle_count\[1\]\[9\]
*230 idle_count\[1\]\[8\]
*231 idle_count\[1\]\[7\]
*232 idle_count\[1\]\[6\]
*233 idle_count\[1\]\[5\]
*234 idle_count\[1\]\[4\]
*235 idle_count\[1\]\[3\]
*236 idle_count\[1\]\[2\]
*237 idle_count\[1\]\[1\]
*238 idle_count\[1\]\[0\]
*239 idle_count\[0\]\[15\]
*240 idle_count\[0\]\[14\]
*241 idle_count\[0\]\[13\]
*242 idle_count\[0\]\[12\]
*243 idle_count\[0\]\[11\]
*244 idle_count\[0\]\[10\]
*245 idle_count\[0\]\[9\]
*246 idle_count\[0\]\[8\]
*247 idle_count\[0\]\[7\]
*248 idle_count\[0\]\[6\]
*249 idle_count\[0\]\[5\]
*250 idle_count\[0\]\[4\]
*251 idle_count\[0\]\[3\]
*252 idle_count\[0\]\[2\]
*253 idle_count\[0\]\[1\]
*254 idle_count\[0\]\[0\]
*255 wake_mask[3]
*256 wake_mask[2]
*257 wake_mask[1]
*258 wake_mask[0]
*259 wake_evt_masked[3]
*260 wake_evt_masked[2]
*261 wake_evt_masked[1]
*262 wake_evt_masked[0]
*263 periph_en[3]
*264 periph_en[2]
*265 periph_en[1]
*266 periph_en[0]
*267 alpha[3]
*268 alpha[2]
*269 alpha[1]
*270 alpha[0]
*271 recent_activity[3]
*272 recent_activity[2]
*273 recent_activity[1]
*274 recent_activity[0]
*275 sleep_eligible[3]
*276 sleep_eligible[2]
*277 sleep_eligible[1]
*278 sleep_eligible[0]
*279 clk_req[3]
*280 clk_req[2]
*281 clk_req[1]
*282 clk_req[0]
*283 u_cfg_regs/FE_PHN33_n371
*284 u_cfg_regs/FE_PHN32_n347
*285 u_cfg_regs/FE_PHN30_periph_en_3
*286 u_cfg_regs/FE_PHN28_n371
*287 u_cfg_regs/FE_PHN23_n185
*288 u_cfg_regs/FE_PHN10_n340
*289 u_cfg_regs/FE_PHN9_state_prev_1_1
*290 u_cfg_regs/FE_PHN8_n335
*291 u_cfg_regs/FE_PHN7_n182
*292 u_cfg_regs/FE_PHN6_n184
*293 u_cfg_regs/FE_OFN7_alpha_1
*294 u_cfg_regs/CTS_5
*295 u_cfg_regs/CTS_4
*296 u_cfg_regs/CTS_3
*297 u_cfg_regs/CTS_2
*298 u_cfg_regs/CTS_1
*299 u_cfg_regs/FE_OFN1_n401
*300 u_cfg_regs/FE_OFN0_alpha_2
*301 u_cfg_regs/state_prev\[3\]\[1\]
*302 u_cfg_regs/state_prev\[3\]\[0\]
*303 u_cfg_regs/state_prev\[2\]\[1\]
*304 u_cfg_regs/state_prev\[2\]\[0\]
*305 u_cfg_regs/state_prev\[1\]\[1\]
*306 u_cfg_regs/state_prev\[1\]\[0\]
*307 u_cfg_regs/state_prev\[0\]\[1\]
*308 u_cfg_regs/state_prev\[0\]\[0\]
*309 u_cfg_regs/n137
*310 u_cfg_regs/n138
*311 u_cfg_regs/n139
*312 u_cfg_regs/n182
*313 u_cfg_regs/n183
*314 u_cfg_regs/n184
*315 u_cfg_regs/n185
*316 u_cfg_regs/n28
*317 u_cfg_regs/n71
*318 u_cfg_regs/n86
*319 u_cfg_regs/n105
*320 u_cfg_regs/n107
*321 u_cfg_regs/n288
*322 u_cfg_regs/n289
*323 u_cfg_regs/n290
*324 u_cfg_regs/n291
*325 u_cfg_regs/n292
*326 u_cfg_regs/n293
*327 u_cfg_regs/n294
*328 u_cfg_regs/n295
*329 u_cfg_regs/n296
*330 u_cfg_regs/n297
*331 u_cfg_regs/n298
*332 u_cfg_regs/n299
*333 u_cfg_regs/n300
*334 u_cfg_regs/n301
*335 u_cfg_regs/n302
*336 u_cfg_regs/n303
*337 u_cfg_regs/n304
*338 u_cfg_regs/n305
*339 u_cfg_regs/n306
*340 u_cfg_regs/n307
*341 u_cfg_regs/n308
*342 u_cfg_regs/n309
*343 u_cfg_regs/n310
*344 u_cfg_regs/n311
*345 u_cfg_regs/n312
*346 u_cfg_regs/n313
*347 u_cfg_regs/n314
*348 u_cfg_regs/n315
*349 u_cfg_regs/n316
*350 u_cfg_regs/n317
*351 u_cfg_regs/n318
*352 u_cfg_regs/n319
*353 u_cfg_regs/n320
*354 u_cfg_regs/n321
*355 u_cfg_regs/n322
*356 u_cfg_regs/n323
*357 u_cfg_regs/n324
*358 u_cfg_regs/n325
*359 u_cfg_regs/n326
*360 u_cfg_regs/n327
*361 u_cfg_regs/n328
*362 u_cfg_regs/n329
*363 u_cfg_regs/n330
*364 u_cfg_regs/n331
*365 u_cfg_regs/n332
*366 u_cfg_regs/n333
*367 u_cfg_regs/n334
*368 u_cfg_regs/n335
*369 u_cfg_regs/n336
*370 u_cfg_regs/n337
*371 u_cfg_regs/n338
*372 u_cfg_regs/n339
*373 u_cfg_regs/n340
*374 u_cfg_regs/n341
*375 u_cfg_regs/n342
*376 u_cfg_regs/n343
*377 u_cfg_regs/n344
*378 u_cfg_regs/n345
*379 u_cfg_regs/n346
*380 u_cfg_regs/n347
*381 u_cfg_regs/n348
*382 u_cfg_regs/n349
*383 u_cfg_regs/n350
*384 u_cfg_regs/n351
*385 u_cfg_regs/n352
*386 u_cfg_regs/n353
*387 u_cfg_regs/n354
*388 u_cfg_regs/n355
*389 u_cfg_regs/n356
*390 u_cfg_regs/n357
*391 u_cfg_regs/n358
*392 u_cfg_regs/n359
*393 u_cfg_regs/n360
*394 u_cfg_regs/n361
*395 u_cfg_regs/n362
*396 u_cfg_regs/n363
*397 u_cfg_regs/n364
*398 u_cfg_regs/n365
*399 u_cfg_regs/n366
*400 u_cfg_regs/n367
*401 u_cfg_regs/n368
*402 u_cfg_regs/n369
*403 u_cfg_regs/n370
*404 u_cfg_regs/n371
*405 u_cfg_regs/n372
*406 u_cfg_regs/n373
*407 u_cfg_regs/n374
*408 u_cfg_regs/n375
*409 u_cfg_regs/n376
*410 u_cfg_regs/n377
*411 u_cfg_regs/n378
*412 u_cfg_regs/n379
*413 u_cfg_regs/n380
*414 u_cfg_regs/n381
*415 u_cfg_regs/n382
*416 u_cfg_regs/n383
*417 u_cfg_regs/n384
*418 u_cfg_regs/n385
*419 u_cfg_regs/n386
*420 u_cfg_regs/n387
*421 u_cfg_regs/n388
*422 u_cfg_regs/n389
*423 u_cfg_regs/n390
*424 u_cfg_regs/n391
*425 u_cfg_regs/n399
*426 u_cfg_regs/n400
*427 u_cfg_regs/n401
*428 u_cfg_regs/n402
*429 u_cfg_regs/n403
*430 u_cfg_regs/n405
*431 u_cfg_regs/n406
*432 u_cfg_regs/n407
*433 u_cfg_regs/n408
*434 u_cfg_regs/n409
*435 u_cfg_regs/n410
*436 u_cfg_regs/n411
*437 u_cfg_regs/n412
*438 u_cfg_regs/n413
*439 u_cfg_regs/n414
*440 u_cfg_regs/n415
*441 u_cfg_regs/n416
*442 u_cfg_regs/n417
*443 u_cfg_regs/n418
*444 u_cfg_regs/n419
*445 u_cfg_regs/n420
*446 u_cfg_regs/n421
*447 u_cfg_regs/n422
*448 u_cfg_regs/n423
*449 u_cfg_regs/n424
*450 u_cfg_regs/n425
*451 u_cfg_regs/n426
*452 u_cfg_regs/n427
*453 u_cfg_regs/n428
*454 u_cfg_regs/n429
*455 u_cfg_regs/n430
*456 u_cfg_regs/n431
*457 u_cfg_regs/n432
*458 u_cfg_regs/n433
*459 u_cfg_regs/irq_mask_reg[3]
*460 u_cfg_regs/irq_mask_reg[2]
*461 u_cfg_regs/irq_mask_reg[1]
*462 u_cfg_regs/irq_mask_reg[0]
*463 u_cfg_regs/irq_status_reg[3]
*464 u_cfg_regs/irq_status_reg[2]
*465 u_cfg_regs/irq_status_reg[1]
*466 u_cfg_regs/irq_status_reg[0]
*467 u_activity_counter/FE_PHN26_N364
*468 u_activity_counter/FE_PHN25_N348
*469 u_activity_counter/FE_PHN24_N384
*470 u_activity_counter/FE_PHN20_N382
*471 u_activity_counter/FE_PHN17_N346
*472 u_activity_counter/FE_PHN12_idle_count_3_1
*473 u_activity_counter/FE_PHN11_idle_count_0_1
*474 u_activity_counter/N88
*475 u_activity_counter/N90
*476 u_activity_counter/N91
*477 u_activity_counter/N92
*478 u_activity_counter/N93
*479 u_activity_counter/N94
*480 u_activity_counter/N95
*481 u_activity_counter/N96
*482 u_activity_counter/N97
*483 u_activity_counter/N98
*484 u_activity_counter/N99
*485 u_activity_counter/N100
*486 u_activity_counter/N101
*487 u_activity_counter/N102
*488 u_activity_counter/N103
*489 u_activity_counter/N158
*490 u_activity_counter/N160
*491 u_activity_counter/N161
*492 u_activity_counter/N162
*493 u_activity_counter/N163
*494 u_activity_counter/N164
*495 u_activity_counter/N165
*496 u_activity_counter/N166
*497 u_activity_counter/N167
*498 u_activity_counter/N168
*499 u_activity_counter/N169
*500 u_activity_counter/N170
*501 u_activity_counter/N171
*502 u_activity_counter/N172
*503 u_activity_counter/N173
*504 u_activity_counter/N228
*505 u_activity_counter/N230
*506 u_activity_counter/N231
*507 u_activity_counter/N232
*508 u_activity_counter/N233
*509 u_activity_counter/N234
*510 u_activity_counter/N235
*511 u_activity_counter/N236
*512 u_activity_counter/N237
*513 u_activity_counter/N238
*514 u_activity_counter/N239
*515 u_activity_counter/N240
*516 u_activity_counter/N241
*517 u_activity_counter/N242
*518 u_activity_counter/N243
*519 u_activity_counter/N298
*520 u_activity_counter/N300
*521 u_activity_counter/N301
*522 u_activity_counter/N302
*523 u_activity_counter/N303
*524 u_activity_counter/N304
*525 u_activity_counter/N305
*526 u_activity_counter/N306
*527 u_activity_counter/N307
*528 u_activity_counter/N308
*529 u_activity_counter/N309
*530 u_activity_counter/N310
*531 u_activity_counter/N311
*532 u_activity_counter/N312
*533 u_activity_counter/N313
*534 u_activity_counter/activity_timer\[3\]\[3\]
*535 u_activity_counter/activity_timer\[3\]\[2\]
*536 u_activity_counter/activity_timer\[3\]\[1\]
*537 u_activity_counter/activity_timer\[3\]\[0\]
*538 u_activity_counter/activity_timer\[2\]\[3\]
*539 u_activity_counter/activity_timer\[2\]\[2\]
*540 u_activity_counter/activity_timer\[2\]\[1\]
*541 u_activity_counter/activity_timer\[2\]\[0\]
*542 u_activity_counter/activity_timer\[1\]\[3\]
*543 u_activity_counter/activity_timer\[1\]\[2\]
*544 u_activity_counter/activity_timer\[1\]\[1\]
*545 u_activity_counter/activity_timer\[1\]\[0\]
*546 u_activity_counter/activity_timer\[0\]\[3\]
*547 u_activity_counter/activity_timer\[0\]\[2\]
*548 u_activity_counter/activity_timer\[0\]\[1\]
*549 u_activity_counter/activity_timer\[0\]\[0\]
*550 u_activity_counter/N328
*551 u_activity_counter/N329
*552 u_activity_counter/N330
*553 u_activity_counter/N331
*554 u_activity_counter/N346
*555 u_activity_counter/N347
*556 u_activity_counter/N348
*557 u_activity_counter/N349
*558 u_activity_counter/N364
*559 u_activity_counter/N365
*560 u_activity_counter/N366
*561 u_activity_counter/N367
*562 u_activity_counter/N382
*563 u_activity_counter/N383
*564 u_activity_counter/N384
*565 u_activity_counter/N385
*566 u_activity_counter/n170
*567 u_activity_counter/n171
*568 u_activity_counter/n172
*569 u_activity_counter/n173
*570 u_activity_counter/n174
*571 u_activity_counter/n175
*572 u_activity_counter/n176
*573 u_activity_counter/n177
*574 u_activity_counter/n178
*575 u_activity_counter/n179
*576 u_activity_counter/n180
*577 u_activity_counter/n181
*578 u_activity_counter/n182
*579 u_activity_counter/n183
*580 u_activity_counter/n184
*581 u_activity_counter/n185
*582 u_activity_counter/n186
*583 u_activity_counter/n187
*584 u_activity_counter/n188
*585 u_activity_counter/n189
*586 u_activity_counter/n190
*587 u_activity_counter/n191
*588 u_activity_counter/n192
*589 u_activity_counter/n193
*590 u_activity_counter/n194
*591 u_activity_counter/n195
*592 u_activity_counter/n196
*593 u_activity_counter/n197
*594 u_activity_counter/n198
*595 u_activity_counter/n199
*596 u_activity_counter/n200
*597 u_activity_counter/n201
*598 u_activity_counter/n202
*599 u_activity_counter/n203
*600 u_activity_counter/n204
*601 u_activity_counter/n205
*602 u_activity_counter/n206
*603 u_activity_counter/n207
*604 u_activity_counter/n208
*605 u_activity_counter/n209
*606 u_activity_counter/n210
*607 u_activity_counter/n211
*608 u_activity_counter/n212
*609 u_activity_counter/n213
*610 u_activity_counter/n214
*611 u_activity_counter/n215
*612 u_activity_counter/n216
*613 u_activity_counter/n217
*614 u_activity_counter/n218
*615 u_activity_counter/n219
*616 u_activity_counter/n220
*617 u_activity_counter/n221
*618 u_activity_counter/n222
*619 u_activity_counter/n223
*620 u_activity_counter/n224
*621 u_activity_counter/n225
*622 u_activity_counter/n226
*623 u_activity_counter/n227
*624 u_activity_counter/n228
*625 u_activity_counter/n229
*626 u_activity_counter/n230
*627 u_activity_counter/n231
*628 u_activity_counter/n232
*629 u_activity_counter/n233
*630 u_activity_counter/n234
*631 u_activity_counter/n235
*632 u_activity_counter/n236
*633 u_activity_counter/n237
*634 u_activity_counter/n238
*635 u_activity_counter/n239
*636 u_activity_counter/n240
*637 u_activity_counter/n241
*638 u_activity_counter/n242
*639 u_activity_counter/n243
*640 u_activity_counter/n244
*641 u_activity_counter/n245
*642 u_activity_counter/n246
*643 u_activity_counter/n247
*644 u_activity_counter/n248
*645 u_activity_counter/n249
*646 u_activity_counter/n250
*647 u_activity_counter/n251
*648 u_activity_counter/n252
*649 u_activity_counter/n253
*650 u_activity_counter/n254
*651 u_activity_counter/n255
*652 u_activity_counter/n256
*653 u_activity_counter/n257
*654 u_activity_counter/n258
*655 u_activity_counter/n259
*656 u_activity_counter/n260
*657 u_activity_counter/n261
*658 u_activity_counter/n262
*659 u_activity_counter/n263
*660 u_activity_counter/n264
*661 u_activity_counter/n265
*662 u_activity_counter/n266
*663 u_activity_counter/n267
*664 u_activity_counter/n268
*665 u_activity_counter/n269
*666 u_activity_counter/n270
*667 u_activity_counter/n271
*668 u_activity_counter/n272
*669 u_activity_counter/n273
*670 u_activity_counter/n274
*671 u_activity_counter/n275
*672 u_activity_counter/n276
*673 u_activity_counter/n277
*674 u_activity_counter/n278
*675 u_activity_counter/n279
*676 u_activity_counter/n280
*677 u_activity_counter/n281
*678 u_activity_counter/n282
*679 u_activity_counter/n283
*680 u_activity_counter/n284
*681 u_activity_counter/n285
*682 u_activity_counter/n286
*683 u_activity_counter/n287
*684 u_activity_counter/n288
*685 u_activity_counter/n289
*686 u_activity_counter/n290
*687 u_activity_counter/n291
*688 u_activity_counter/n292
*689 u_activity_counter/n293
*690 u_activity_counter/n294
*691 u_activity_counter/n295
*692 u_activity_counter/n296
*693 u_activity_counter/n297
*694 u_activity_counter/n298
*695 u_activity_counter/n299
*696 u_activity_counter/n300
*697 u_activity_counter/n301
*698 u_activity_counter/n302
*699 u_activity_counter/n303
*700 u_activity_counter/n304
*701 u_activity_counter/n305
*702 u_activity_counter/n306
*703 u_activity_counter/n307
*704 u_activity_counter/n308
*705 u_activity_counter/n309
*706 u_activity_counter/n310
*707 u_activity_counter/n311
*708 u_activity_counter/n312
*709 u_activity_counter/n313
*710 u_activity_counter/n314
*711 u_activity_counter/n315
*712 u_activity_counter/n316
*713 u_activity_counter/n317
*714 u_activity_counter/n318
*715 u_activity_counter/n319
*716 u_activity_counter/n320
*717 u_activity_counter/n321
*718 u_activity_counter/n322
*719 u_activity_counter/n323
*720 u_activity_counter/n324
*721 u_activity_counter/n325
*722 u_activity_counter/n331
*723 u_activity_counter/n332
*724 u_activity_counter/n333
*725 u_activity_counter/n334
*726 u_activity_counter/n335
*727 u_activity_counter/n336
*728 u_activity_counter/n337
*729 u_activity_counter/n338
*730 u_activity_counter/n339
*731 u_activity_counter/n340
*732 u_activity_counter/n341
*733 u_activity_counter/n342
*734 u_activity_counter/n343
*735 u_idle_predictor/FE_OFN4_n1035
*736 u_idle_predictor/FE_OFN3_n1052
*737 u_idle_predictor/FE_OFN2_n1031
*738 u_idle_predictor/intadd_0\/B\[5\]
*739 u_idle_predictor/intadd_0\/B\[4\]
*740 u_idle_predictor/intadd_0\/B\[3\]
*741 u_idle_predictor/intadd_0\/B\[2\]
*742 u_idle_predictor/intadd_0\/B\[1\]
*743 u_idle_predictor/intadd_0\/B\[0\]
*744 u_idle_predictor/intadd_0\/CI
*745 u_idle_predictor/intadd_0\/SUM\[5\]
*746 u_idle_predictor/intadd_0\/SUM\[4\]
*747 u_idle_predictor/intadd_0\/SUM\[3\]
*748 u_idle_predictor/intadd_0\/SUM\[2\]
*749 u_idle_predictor/intadd_0\/SUM\[1\]
*750 u_idle_predictor/intadd_0\/SUM\[0\]
*751 u_idle_predictor/intadd_0\/n6
*752 u_idle_predictor/intadd_0\/n5
*753 u_idle_predictor/intadd_0\/n4
*754 u_idle_predictor/intadd_0\/n3
*755 u_idle_predictor/intadd_0\/n2
*756 u_idle_predictor/intadd_0\/n1
*757 u_idle_predictor/intadd_1\/B\[5\]
*758 u_idle_predictor/intadd_1\/B\[4\]
*759 u_idle_predictor/intadd_1\/B\[3\]
*760 u_idle_predictor/intadd_1\/B\[2\]
*761 u_idle_predictor/intadd_1\/B\[1\]
*762 u_idle_predictor/intadd_1\/B\[0\]
*763 u_idle_predictor/intadd_1\/CI
*764 u_idle_predictor/intadd_1\/SUM\[5\]
*765 u_idle_predictor/intadd_1\/SUM\[4\]
*766 u_idle_predictor/intadd_1\/SUM\[3\]
*767 u_idle_predictor/intadd_1\/SUM\[2\]
*768 u_idle_predictor/intadd_1\/SUM\[1\]
*769 u_idle_predictor/intadd_1\/SUM\[0\]
*770 u_idle_predictor/intadd_1\/n6
*771 u_idle_predictor/intadd_1\/n5
*772 u_idle_predictor/intadd_1\/n4
*773 u_idle_predictor/intadd_1\/n3
*774 u_idle_predictor/intadd_1\/n2
*775 u_idle_predictor/intadd_1\/n1
*776 u_idle_predictor/intadd_2\/B\[5\]
*777 u_idle_predictor/intadd_2\/B\[4\]
*778 u_idle_predictor/intadd_2\/B\[3\]
*779 u_idle_predictor/intadd_2\/B\[2\]
*780 u_idle_predictor/intadd_2\/B\[1\]
*781 u_idle_predictor/intadd_2\/B\[0\]
*782 u_idle_predictor/intadd_2\/CI
*783 u_idle_predictor/intadd_2\/SUM\[5\]
*784 u_idle_predictor/intadd_2\/SUM\[4\]
*785 u_idle_predictor/intadd_2\/SUM\[3\]
*786 u_idle_predictor/intadd_2\/SUM\[2\]
*787 u_idle_predictor/intadd_2\/SUM\[1\]
*788 u_idle_predictor/intadd_2\/SUM\[0\]
*789 u_idle_predictor/intadd_2\/n6
*790 u_idle_predictor/intadd_2\/n5
*791 u_idle_predictor/intadd_2\/n4
*792 u_idle_predictor/intadd_2\/n3
*793 u_idle_predictor/intadd_2\/n2
*794 u_idle_predictor/intadd_2\/n1
*795 u_idle_predictor/intadd_3\/B\[5\]
*796 u_idle_predictor/intadd_3\/B\[4\]
*797 u_idle_predictor/intadd_3\/B\[3\]
*798 u_idle_predictor/intadd_3\/B\[2\]
*799 u_idle_predictor/intadd_3\/B\[1\]
*800 u_idle_predictor/intadd_3\/B\[0\]
*801 u_idle_predictor/intadd_3\/CI
*802 u_idle_predictor/intadd_3\/SUM\[5\]
*803 u_idle_predictor/intadd_3\/SUM\[4\]
*804 u_idle_predictor/intadd_3\/SUM\[3\]
*805 u_idle_predictor/intadd_3\/SUM\[2\]
*806 u_idle_predictor/intadd_3\/SUM\[1\]
*807 u_idle_predictor/intadd_3\/SUM\[0\]
*808 u_idle_predictor/intadd_3\/n6
*809 u_idle_predictor/intadd_3\/n5
*810 u_idle_predictor/intadd_3\/n4
*811 u_idle_predictor/intadd_3\/n3
*812 u_idle_predictor/intadd_3\/n2
*813 u_idle_predictor/intadd_3\/n1
*814 u_idle_predictor/n533
*815 u_idle_predictor/n534
*816 u_idle_predictor/n535
*817 u_idle_predictor/n536
*818 u_idle_predictor/n537
*819 u_idle_predictor/n538
*820 u_idle_predictor/n539
*821 u_idle_predictor/n540
*822 u_idle_predictor/n541
*823 u_idle_predictor/n542
*824 u_idle_predictor/n543
*825 u_idle_predictor/n544
*826 u_idle_predictor/n545
*827 u_idle_predictor/n546
*828 u_idle_predictor/n547
*829 u_idle_predictor/n548
*830 u_idle_predictor/n549
*831 u_idle_predictor/n550
*832 u_idle_predictor/n551
*833 u_idle_predictor/n552
*834 u_idle_predictor/n553
*835 u_idle_predictor/n554
*836 u_idle_predictor/n555
*837 u_idle_predictor/n556
*838 u_idle_predictor/n587
*839 u_idle_predictor/n591
*840 u_idle_predictor/n592
*841 u_idle_predictor/n593
*842 u_idle_predictor/n594
*843 u_idle_predictor/n595
*844 u_idle_predictor/n596
*845 u_idle_predictor/n597
*846 u_idle_predictor/n598
*847 u_idle_predictor/n599
*848 u_idle_predictor/n600
*849 u_idle_predictor/n601
*850 u_idle_predictor/n602
*851 u_idle_predictor/n603
*852 u_idle_predictor/n604
*853 u_idle_predictor/n605
*854 u_idle_predictor/n606
*855 u_idle_predictor/n607
*856 u_idle_predictor/n608
*857 u_idle_predictor/n609
*858 u_idle_predictor/n610
*859 u_idle_predictor/n611
*860 u_idle_predictor/n612
*861 u_idle_predictor/n613
*862 u_idle_predictor/n614
*863 u_idle_predictor/n615
*864 u_idle_predictor/n616
*865 u_idle_predictor/n617
*866 u_idle_predictor/n618
*867 u_idle_predictor/n619
*868 u_idle_predictor/n620
*869 u_idle_predictor/n621
*870 u_idle_predictor/n622
*871 u_idle_predictor/n623
*872 u_idle_predictor/n624
*873 u_idle_predictor/n625
*874 u_idle_predictor/n626
*875 u_idle_predictor/n627
*876 u_idle_predictor/n628
*877 u_idle_predictor/n629
*878 u_idle_predictor/n630
*879 u_idle_predictor/n631
*880 u_idle_predictor/n632
*881 u_idle_predictor/n633
*882 u_idle_predictor/n634
*883 u_idle_predictor/n635
*884 u_idle_predictor/n636
*885 u_idle_predictor/n637
*886 u_idle_predictor/n638
*887 u_idle_predictor/n639
*888 u_idle_predictor/n640
*889 u_idle_predictor/n641
*890 u_idle_predictor/n642
*891 u_idle_predictor/n643
*892 u_idle_predictor/n644
*893 u_idle_predictor/n645
*894 u_idle_predictor/n646
*895 u_idle_predictor/n647
*896 u_idle_predictor/n648
*897 u_idle_predictor/n649
*898 u_idle_predictor/n650
*899 u_idle_predictor/n651
*900 u_idle_predictor/n652
*901 u_idle_predictor/n653
*902 u_idle_predictor/n654
*903 u_idle_predictor/n655
*904 u_idle_predictor/n656
*905 u_idle_predictor/n657
*906 u_idle_predictor/n658
*907 u_idle_predictor/n659
*908 u_idle_predictor/n660
*909 u_idle_predictor/n661
*910 u_idle_predictor/n662
*911 u_idle_predictor/n663
*912 u_idle_predictor/n664
*913 u_idle_predictor/n665
*914 u_idle_predictor/n666
*915 u_idle_predictor/n667
*916 u_idle_predictor/n668
*917 u_idle_predictor/n669
*918 u_idle_predictor/n670
*919 u_idle_predictor/n671
*920 u_idle_predictor/n672
*921 u_idle_predictor/n673
*922 u_idle_predictor/n674
*923 u_idle_predictor/n675
*924 u_idle_predictor/n676
*925 u_idle_predictor/n677
*926 u_idle_predictor/n678
*927 u_idle_predictor/n679
*928 u_idle_predictor/n680
*929 u_idle_predictor/n681
*930 u_idle_predictor/n682
*931 u_idle_predictor/n683
*932 u_idle_predictor/n684
*933 u_idle_predictor/n685
*934 u_idle_predictor/n686
*935 u_idle_predictor/n687
*936 u_idle_predictor/n688
*937 u_idle_predictor/n689
*938 u_idle_predictor/n690
*939 u_idle_predictor/n691
*940 u_idle_predictor/n692
*941 u_idle_predictor/n693
*942 u_idle_predictor/n694
*943 u_idle_predictor/n695
*944 u_idle_predictor/n696
*945 u_idle_predictor/n697
*946 u_idle_predictor/n698
*947 u_idle_predictor/n699
*948 u_idle_predictor/n700
*949 u_idle_predictor/n701
*950 u_idle_predictor/n702
*951 u_idle_predictor/n703
*952 u_idle_predictor/n704
*953 u_idle_predictor/n705
*954 u_idle_predictor/n706
*955 u_idle_predictor/n707
*956 u_idle_predictor/n708
*957 u_idle_predictor/n709
*958 u_idle_predictor/n710
*959 u_idle_predictor/n711
*960 u_idle_predictor/n712
*961 u_idle_predictor/n713
*962 u_idle_predictor/n714
*963 u_idle_predictor/n715
*964 u_idle_predictor/n716
*965 u_idle_predictor/n717
*966 u_idle_predictor/n718
*967 u_idle_predictor/n719
*968 u_idle_predictor/n720
*969 u_idle_predictor/n721
*970 u_idle_predictor/n722
*971 u_idle_predictor/n723
*972 u_idle_predictor/n724
*973 u_idle_predictor/n725
*974 u_idle_predictor/n726
*975 u_idle_predictor/n727
*976 u_idle_predictor/n728
*977 u_idle_predictor/n729
*978 u_idle_predictor/n730
*979 u_idle_predictor/n731
*980 u_idle_predictor/n732
*981 u_idle_predictor/n733
*982 u_idle_predictor/n734
*983 u_idle_predictor/n735
*984 u_idle_predictor/n736
*985 u_idle_predictor/n737
*986 u_idle_predictor/n738
*987 u_idle_predictor/n739
*988 u_idle_predictor/n740
*989 u_idle_predictor/n741
*990 u_idle_predictor/n742
*991 u_idle_predictor/n743
*992 u_idle_predictor/n744
*993 u_idle_predictor/n745
*994 u_idle_predictor/n746
*995 u_idle_predictor/n747
*996 u_idle_predictor/n748
*997 u_idle_predictor/n749
*998 u_idle_predictor/n750
*999 u_idle_predictor/n751
*1000 u_idle_predictor/n752
*1001 u_idle_predictor/n753
*1002 u_idle_predictor/n754
*1003 u_idle_predictor/n755
*1004 u_idle_predictor/n756
*1005 u_idle_predictor/n757
*1006 u_idle_predictor/n758
*1007 u_idle_predictor/n759
*1008 u_idle_predictor/n760
*1009 u_idle_predictor/n761
*1010 u_idle_predictor/n762
*1011 u_idle_predictor/n763
*1012 u_idle_predictor/n764
*1013 u_idle_predictor/n765
*1014 u_idle_predictor/n766
*1015 u_idle_predictor/n767
*1016 u_idle_predictor/n768
*1017 u_idle_predictor/n769
*1018 u_idle_predictor/n770
*1019 u_idle_predictor/n771
*1020 u_idle_predictor/n772
*1021 u_idle_predictor/n773
*1022 u_idle_predictor/n774
*1023 u_idle_predictor/n775
*1024 u_idle_predictor/n776
*1025 u_idle_predictor/n777
*1026 u_idle_predictor/n778
*1027 u_idle_predictor/n779
*1028 u_idle_predictor/n780
*1029 u_idle_predictor/n781
*1030 u_idle_predictor/n782
*1031 u_idle_predictor/n783
*1032 u_idle_predictor/n784
*1033 u_idle_predictor/n785
*1034 u_idle_predictor/n786
*1035 u_idle_predictor/n787
*1036 u_idle_predictor/n788
*1037 u_idle_predictor/n789
*1038 u_idle_predictor/n790
*1039 u_idle_predictor/n791
*1040 u_idle_predictor/n792
*1041 u_idle_predictor/n793
*1042 u_idle_predictor/n794
*1043 u_idle_predictor/n795
*1044 u_idle_predictor/n796
*1045 u_idle_predictor/n797
*1046 u_idle_predictor/n798
*1047 u_idle_predictor/n799
*1048 u_idle_predictor/n800
*1049 u_idle_predictor/n801
*1050 u_idle_predictor/n802
*1051 u_idle_predictor/n803
*1052 u_idle_predictor/n804
*1053 u_idle_predictor/n805
*1054 u_idle_predictor/n806
*1055 u_idle_predictor/n807
*1056 u_idle_predictor/n808
*1057 u_idle_predictor/n809
*1058 u_idle_predictor/n810
*1059 u_idle_predictor/n811
*1060 u_idle_predictor/n812
*1061 u_idle_predictor/n813
*1062 u_idle_predictor/n814
*1063 u_idle_predictor/n815
*1064 u_idle_predictor/n816
*1065 u_idle_predictor/n817
*1066 u_idle_predictor/n818
*1067 u_idle_predictor/n819
*1068 u_idle_predictor/n820
*1069 u_idle_predictor/n821
*1070 u_idle_predictor/n822
*1071 u_idle_predictor/n823
*1072 u_idle_predictor/n824
*1073 u_idle_predictor/n825
*1074 u_idle_predictor/n826
*1075 u_idle_predictor/n827
*1076 u_idle_predictor/n828
*1077 u_idle_predictor/n829
*1078 u_idle_predictor/n830
*1079 u_idle_predictor/n831
*1080 u_idle_predictor/n832
*1081 u_idle_predictor/n833
*1082 u_idle_predictor/n834
*1083 u_idle_predictor/n835
*1084 u_idle_predictor/n836
*1085 u_idle_predictor/n837
*1086 u_idle_predictor/n838
*1087 u_idle_predictor/n839
*1088 u_idle_predictor/n840
*1089 u_idle_predictor/n841
*1090 u_idle_predictor/n842
*1091 u_idle_predictor/n843
*1092 u_idle_predictor/n844
*1093 u_idle_predictor/n845
*1094 u_idle_predictor/n846
*1095 u_idle_predictor/n847